/*--------------------------------*- C++ -*----------------------------------*\
| =========                 |                                                 |
| \\      /  F ield         | OpenFOAM: The Open Source CFD Toolbox           |
|  \\    /   O peration     | Version:  v2012                                 |
|   \\  /    A nd           | Website:  www.openfoam.com                      |
|    \\/     M anipulation  |                                                 |
\*---------------------------------------------------------------------------*/
FoamFile
{
    version     2.0;
    format      ascii;
    class       dictionary;
    object      controlDict;
}
// * * * * * * * * * * * * * * * * * * * * * * * * * * * * * * * * * * * * * //

libs           ("liboverset.so" "libmydynamicMesh.so"); // (overset fvMotionSolvers);
/*libs (overset 
 	fvMotionSolvers
		"libmydynamicMesh.so");
*/
application     overPimpleDyMFoam;

startFrom       latestTime;

startTime       0;

stopAt          endTime;

endTime         0.25;

deltaT          0.0000025;//0.00025;

//writeControl    timeStep;
//writeInterval   10;

writeControl    runTime;
writeInterval   0.05;

purgeWrite      2;

writeFormat     ascii;

writePrecision  10;

writeCompression off;

timeFormat      general;

timePrecision   6;

runTimeModifiable true;

adjustTimeStep  yes;

maxCo           1;


functions
{
#include "forceCoeffs"
#include "forces"
}


// ************************************************************************* //
