/*--------------------------------*- C++ -*----------------------------------*\
| =========                 |                                                 |
| \\      /  F ield         | OpenFOAM: The Open Source CFD Toolbox           |
|  \\    /   O peration     | Version:  v2012                                 |
|   \\  /    A nd           | Website:  www.openfoam.com                      |
|    \\/     M anipulation  |                                                 |
\*---------------------------------------------------------------------------*/
FoamFile
{
    version     2.0;
    format      ascii;
    class       pointVectorField;
    object      pointDisplacement;
}
// * * * * * * * * * * * * * * * * * * * * * * * * * * * * * * * * * * * * * //

dimensions      [0 1 0 0 0 0 0];

internalField   uniform (0 0 0);

boundaryField
{
    overset2
    {
        patchType       overset;
        type            zeroGradient;
    }

    overset3
    {
        patchType       overset;
        type            zeroGradient;
    }

    "(walls|hole|body)"
    {
        type            zeroGradient;
        //value uniform    (0 0 0);
    }

    ".*"
    {
        type            zeroGradient;
        //value uniform    (0 0 0);
    }
}

// ************************************************************************* //
